16

O 2.393877983 -1.398801923 -0.696403205
O 0.786606491 -1.167119741 0.774664283
H -0.472438812 -0.671837568 2.257843256
N 0.450190902 1.585532904 0.574856818
C 1.348669767 -0.904731214 -0.420179844
H -1.703471661 1.146594048 0.945895314
H -1.151182055 -2.380440235 0.698287070
H -0.101153284 -0.608187377 -1.969062567
C -0.494580775 -0.666630328 1.159278274
C 0.594840169 0.012928430 -1.373917818
H 0.183034852 2.549666643 0.736773014
H -0.728715897 1.774186850 -1.288996220
C -0.747388482 0.736035466 0.654016256
O -1.516375303 -1.495385766 0.677436173
H 1.336958051 0.409899473 -2.075991631
C -0.178871512 1.078290462 -0.654499054
